OPT_V9/4ts_w_storgae_myc/powerflow_results_t2.txt
Pandapower Network Debug Info
==================================================

BUS:
       vm_pu  va_degree      p_mw    q_mvar
0   1.001884   0.140408 -0.006072 -0.003169
1   1.002852   0.202323  0.001310  0.001910
2   1.006857   0.250922 -0.003232 -0.001573
3   0.997843   0.209340  0.002882  0.004048
4   1.003722   0.103664 -0.001497 -0.000863
5   1.003626   0.244940 -0.002745  0.002089
6   1.006786   0.301705 -0.002830 -0.001057
7   1.002615   0.251478 -0.005537  0.002023
8   1.001091   0.082577 -0.006358  0.002452
9   0.999936   0.001969  0.003115  0.008185
10  0.999926   0.002174  0.005945  0.010200
11  0.999919   0.002309  0.006925  0.010194
12  0.999955   0.006780 -0.000590  0.005243
13  0.999935   0.007412  0.004256  0.010775
14  0.999941   0.007203  0.004429  0.013092
15  0.999966   0.001255  0.000000  0.000000
16  0.999966   0.001256  0.000000  0.000000
17  0.999956   0.006667  0.000000  0.000000
18  0.999956   0.006670  0.000000  0.000000
19  1.000000   0.000000 -0.010939 -0.034830
20  1.000000   0.000005  0.000000  0.000000
21  1.000000   0.000000  0.010779 -0.038812
22  1.000000   0.000005  0.000000  0.000000
--------------------------------------------------

LINE:
    p_from_mw  q_from_mvar   p_to_mw  q_to_mvar         pl_mw       ql_mvar  i_from_ka   i_to_ka      i_ka  vm_from_pu  va_from_degree  vm_to_pu  va_to_degree  loading_percent
0    0.010929     0.030830 -0.010927  -0.030829  1.046511e-06  8.159817e-07   0.001259  0.001259  0.001259    1.000000        0.000005  0.999966      0.001255         0.547385
1   -0.010789     0.034812  0.010792  -0.034809  3.572903e-06  2.785851e-06   0.001403  0.001403  0.001403    1.000000        0.000005  0.999956      0.006667         0.609910
2    0.015987     0.028579 -0.015986  -0.028579  8.292954e-07  6.466153e-07   0.001260  0.001260  0.001260    0.999966        0.001255  0.999936      0.001969         0.548032
3   -0.000590     0.005243  0.000590  -0.005243  9.628541e-09  7.507532e-09   0.000203  0.000203  0.000203    0.999956        0.006667  0.999955      0.006780         0.088303
4    0.008685     0.023867 -0.008685  -0.023867  3.527564e-07  2.750500e-07   0.000978  0.000978  0.000978    0.999956        0.006667  0.999941      0.007203         0.425056
5   -0.005069     0.001250  0.005082  -0.001240  1.275025e-05  9.941581e-06   0.007536  0.007536  0.007536    0.999966        0.001256  1.001884      0.140408         3.276557
6   -0.005543     0.001057  0.005568  -0.001038  2.470665e-05  1.926418e-05   0.008145  0.008145  0.008145    0.999956        0.006670  1.003626      0.244940         3.541431
7   -0.005514     0.002041  0.005537  -0.002023  2.335568e-05  1.821081e-05   0.008486  0.008486  0.008486    0.999956        0.006670  1.002615      0.251478         3.689782
8   -0.007841     0.001600  0.007852  -0.001591  1.101082e-05  8.585315e-06   0.011551  0.011551  0.011551    0.999956        0.006670  1.001091      0.082577         5.021992
9   -0.012870    -0.020394  0.012871   0.020394  2.011461e-07  1.568370e-07   0.000928  0.000928  0.000928    0.999926        0.002174  0.999936      0.001969         0.403599
10  -0.006925    -0.010194  0.006925   0.010194  7.428966e-08  5.792487e-08   0.000474  0.000474  0.000474    0.999919        0.002309  0.999926      0.002174         0.206253
11   0.004256     0.010775 -0.004256  -0.010775  6.565073e-08  5.118895e-08   0.000446  0.000446  0.000446    0.999941        0.007203  0.999935      0.007412         0.193890
12   0.001910    -0.000346 -0.001908   0.000347  2.217205e-06  1.728791e-06   0.002794  0.002794  0.002794    1.002852        0.202323  1.001884      0.140408         1.214874
13  -0.002882    -0.004048  0.002898   0.004061  1.655695e-05  1.290973e-05   0.007188  0.007188  0.007188    0.997843        0.209340  1.001884      0.140408         3.125043
14   0.003232     0.001573 -0.003220  -0.001564  1.152802e-05  8.988589e-06   0.005153  0.005153  0.005153    1.006857        0.250922  1.002852      0.202323         2.240279
15  -0.001494    -0.000861  0.001497   0.000863  3.607366e-06  2.812722e-06   0.002485  0.002485  0.002485    1.001091        0.082577  1.003722      0.103664         1.080551
16   0.002830     0.001057 -0.002823  -0.001051  7.841340e-06  6.114022e-06   0.004332  0.004332  0.004332    1.006786        0.301705  1.003626      0.244940         1.883354
--------------------------------------------------

TRAFO:
    p_hv_mw  q_hv_mvar   p_lv_mw  q_lv_mvar    pl_mw  ql_mvar   i_hv_ka   i_lv_ka  vm_hv_pu  va_hv_degree  vm_lv_pu  va_lv_degree  loading_percent
0 -0.005059   0.002249  0.005069  -0.001250  0.00001    0.001  0.000213  0.007536  0.999966      0.001255  0.999966      0.001256         0.055370
1 -0.018887   0.005699  0.018897  -0.004699  0.00001    0.001  0.000759  0.028107  0.999956      0.006667  0.999956      0.006670         0.197290
2  0.010939   0.034830 -0.010929  -0.030830  0.00001    0.004  0.000301  0.001259  1.000000      0.000000  1.000000      0.000005         0.091268
3 -0.010779   0.038812  0.010789  -0.034812  0.00001    0.004  0.000332  0.001403  1.000000      0.000000  1.000000      0.000005         0.100703
--------------------------------------------------
